/*---------------------------------------------------------------------------*\
  =========                 |
  \\      /  F ield         | OpenFOAM: The Open Source CFD Toolbox
   \\    /   O peration     | Website:  https://openfoam.org
    \\  /    A nd           | Version:  6
     \\/     M anipulation  |
\*---------------------------------------------------------------------------*/
Build  : 6
Exec   : stationaryGroundwater2DFoam
Date   : Oct 30 2018
Time   : 10:19:21
Host   : "agario"
PID    : 14629
I/O    : uncollated
Case   : /home/phorgue/OpenFOAM/applications/publicSolvers/porousMultiphaseFoam/tutorials/stationaryGroundwater2DFoam-tutorials/1Dwave_hFixed
nProcs : 1
sigFpe : Enabling floating point exception trapping (FOAM_SIGFPE).
fileModificationChecking : Monitoring run-time modified files using timeStampMaster (fileModificationSkew 10)
allowSystemOperations : Allowing user-supplied system call operations

// * * * * * * * * * * * * * * * * * * * * * * * * * * * * * * * * * * * * * //
Create time

Create mesh for time = 0


SIMPLE: Convergence criteria found
        hwater: tolerance 0.0001

Reading field potential

Reading field z0
min(z0) = 0 ; max(z0) = 0.1

Computing (or reading if present) hwater
*** WARNING *** : hwater negative (initialized to 0.01) 
min(hwater) = 0.01 ; max(hwater) = 0.9

Reading transportProperties

Reading Porous Media Properties 

Reading field K

min(K) = 9.4e-12 ; max(K) = 9.4e-12

Reading field U

Reading/calculating face flux field phi

Reading field infiltration (if present)



--> FOAM FATAL IO ERROR: 
keyword Picard is undefined in dictionary "/home/phorgue/OpenFOAM/applications/publicSolvers/porousMultiphaseFoam/tutorials/stationaryGroundwater2DFoam-tutorials/1Dwave_hFixed/system/fvSolution"

file: /home/phorgue/OpenFOAM/applications/publicSolvers/porousMultiphaseFoam/tutorials/stationaryGroundwater2DFoam-tutorials/1Dwave_hFixed/system/fvSolution from line 22 to line 52.

    From function const Foam::dictionary& Foam::dictionary::subDict(const Foam::word&) const
    in file db/dictionary/dictionary.C at line 701.

FOAM exiting

